26

O          1.12037        2.80510       -2.90357
O          0.54311        5.34763       -1.77300
N          2.08331        6.08652        0.57587
H          4.41848        2.76376       -3.77776
C          3.33381        2.82025       -1.88547
H          0.29684        3.33402       -2.89238
H          0.96957        6.05757       -2.28727
H          1.70322        5.44817        1.27376
H          1.27734        6.60780        0.22386
H          5.64939        1.94192       -2.01048
H          3.32553        1.37952       -3.53312
O          4.32863        3.65964       -1.27531
C          4.01422        2.06827       -3.03534
O          5.11270        1.30842       -2.52482
C          1.57945        4.49820       -1.25021
H          3.00612        2.08134       -1.14348
O          4.91844        5.12667        0.37017
C          3.83514        4.36949       -0.14254
C          2.15182        3.65073       -2.39089
C          2.67406        5.31954       -0.54563
H          3.50924        3.66051        0.62862
H          3.06375        6.06641       -1.25003
H          1.08276        3.83566       -0.52847
H          2.46610        4.31402       -3.20907
H          5.49181        4.49206        0.82781
Cd         3.81133        7.47668        1.75771
