12
monomer
C       -0.5720234633    1.0789354790    0.2974800221
N       -1.2390219398   -0.0646210600    0.0542353294
C       -0.4952526709   -1.1020514516   -0.3460694589
N        0.8574018264   -1.0600788211   -0.5049448376
C        1.4264338811    0.1540435106   -0.2552753893
N        0.7561377101    1.2378196285    0.1453726990
S        3.2137446126    0.2998644986   -0.4897487239
S       -1.3306634151   -2.6636962978   -0.7097229932
S       -1.5536047041    2.4814115610    0.8617242038
H        3.2623236075    1.6167966421   -0.1196093530
H       -2.5676947729   -2.1971131230   -0.3514229780
H       -0.4804111740    3.3262972276    0.9761323826