13

C         -0.64592        1.10869        0.00719
N         -1.35123       -0.01539        0.00180
C         -0.61855       -1.11923       -0.00431
N          0.70835       -1.16931       -0.01365
C          1.29759        0.01925       -0.00660
N          0.67847        1.19225        0.00539
S          3.06545        0.02800       -0.02745
S         -1.49251       -2.65561       -0.00049
S         -1.54071        2.63312        0.01919
H          3.17536       -1.02389        0.79422
H         -2.70026       -2.07771        0.00555
H         -0.44135        3.39170        0.10888
Cd         3.35711        0.01913       -2.26413